** Cadence Design Systems, Inc. XTC Output File. Fri Jun  8 10:40:20 2007
** STATUS GENERATED_BY_XTC
** INPUT_FROM GDSII
** PS/PD excludes gate width
** FLOW_OPTIONS 75bc81c:74ddc54

*.DATABASE_UNIT 1000
*.DEVTMPLT 0 m(n) N_DEVICE N_SOURCE_DRAIN(d) POLYCIDE(g) N_SOURCE_DRAIN(s) n_bulk(b)
*.DEVTMPLT 1 m(p) P_DEVICE P_SOURCE_DRAIN(d) POLYCIDE(g) P_SOURCE_DRAIN(s) p_bulk(b)


.SUBCKT AOI21BX2AD5wwdwwwwwqyhsf2y a10 a7 a6 a5 a4 a3
Ma0 a6 a1 a7 n_bulk n l=100n w=690n ad=129.3f pd=1.15u as=158.7f ps=1.15u nrd=0.271582 nrs=0.333333 $X=1890 $Y=575 $dt=0 $PIN_XY=1840,575,1890,575,1940,575,1890,575
Ma1 a2 a5 a8 n_bulk n l=100n w=300n ad=69f pd=760n as=22.5f ps=150n nrd=0.766667 nrs=0.25 $X=365 $Y=770 $dt=0 $PIN_XY=315,770,365,770,415,770,365,770
Ma2 a6 a4 a8 n_bulk n l=100n w=300n ad=89.07f pd=765n as=22.5f ps=150n nrd=0.989722 nrs=0.25 $X=615 $Y=770 $dt=0 $PIN_XY=665,770,615,770,565,770,615,770
Ma3 a6 a3 a9 n_bulk n l=100n w=350n ad=89.07f pd=765n as=28f ps=160n nrd=0.727143 nrs=0.228571 $X=990 $Y=745 $dt=0 $PIN_XY=940,745,990,745,1040,745,990,745
Ma4 a1 a2 a9 n_bulk n l=100n w=350n ad=80.5f pd=810n as=28f ps=160n nrd=0.657143 nrs=0.228571 $X=1250 $Y=745 $dt=0 $PIN_XY=1300,745,1250,745,1200,745,1250,745
Ma5 a10 a5 a2 p_bulk p l=100n w=300n ad=139.8f pd=1.76u as=39f ps=260n nrd=1.55333 nrs=0.433333 $X=310 $Y=1510 $dt=1 $PIN_XY=260,1510,310,1510,360,1510,310,1510
Ma6 a2 a4 a10 p_bulk p l=100n w=300n ad=39f pd=260n as=82.85f ps=770n nrd=0.433333 nrs=0.920556 $X=670 $Y=1510 $dt=1 $PIN_XY=620,1510,670,1510,720,1510,670,1510
Ma7 a10 a3 a1 p_bulk p l=100n w=380n ad=82.85f pd=770n as=49.4f ps=260n nrd=0.573753 nrs=0.342105 $X=1010 $Y=1550 $dt=1 $PIN_XY=960,1550,1010,1550,1060,1550,1010,1550
Ma8 a1 a2 a10 p_bulk p l=100n w=380n ad=49.4f pd=260n as=167.8f ps=695n nrd=0.342105 nrs=1.16205 $X=1370 $Y=1550 $dt=1 $PIN_XY=1320,1550,1370,1550,1420,1550,1370,1550
Ma9 a10 a1 a7 p_bulk p l=100n w=930n ad=167.8f pd=695n as=213.9f ps=1.39u nrd=0.194011 nrs=0.247312 $X=1890 $Y=1825 $dt=1 $PIN_XY=1840,1825,1890,1825,1940,1825,1890,1825
.ENDS AOI21BX2AD5wwdwwwwwqyhsf2y

.SUBCKT CLKXOR2X8AD5wwswwwwwpjqkf6y a20 a19 a17 a16 a15
Ma10 a18 a15 a14 n_bulk n l=100n w=410n ad=84f pd=525n as=94.3f ps=870n nrd=0.499703 nrs=0.560976 $X=2370 $Y=600 $dt=0 $PIN_XY=2420,600,2370,600,2320,600,2370,600
Ma11 a14 a15 a18 n_bulk n l=100n w=410n ad=85.07f pd=415n as=84f ps=525n nrd=0.506098 nrs=0.499703 $X=2770 $Y=600 $dt=0 $PIN_XY=2820,600,2770,600,2720,600,2770,600
Ma12 a13 a12 a14 n_bulk n l=100n w=410n ad=61.5f pd=300n as=85.07f ps=415n nrd=0.365854 nrs=0.506098 $X=3285 $Y=600 $dt=0 $PIN_XY=3335,600,3285,600,3235,600,3285,600
Ma13 a13 a12 a14 n_bulk n l=100n w=410n ad=61.5f pd=300n as=94.3f ps=870n nrd=0.365854 nrs=0.560976 $X=3685 $Y=600 $dt=0 $PIN_XY=3635,600,3685,600,3735,600,3685,600
Ma14 a19 a14 a17 n_bulk n l=100n w=330n ad=42.9f pd=260n as=75.9f ps=790n nrd=0.393939 nrs=0.69697 $X=6370 $Y=755 $dt=0 $PIN_XY=6320,755,6370,755,6420,755,6370,755
Ma15 a17 a14 a19 n_bulk n l=100n w=330n ad=75.5f pd=560n as=42.9f ps=260n nrd=0.693297 nrs=0.393939 $X=6010 $Y=755 $dt=0 $PIN_XY=5960,755,6010,755,6060,755,6010,755
Ma16 a17 a14 a19 n_bulk n l=100n w=330n ad=75.5f pd=560n as=42.9f ps=260n nrd=0.693297 nrs=0.393939 $X=5610 $Y=755 $dt=0 $PIN_XY=5660,755,5610,755,5560,755,5610,755
Ma17 a17 a14 a19 n_bulk n l=100n w=330n ad=102.7f pd=730n as=42.9f ps=260n nrd=0.943067 nrs=0.393939 $X=5250 $Y=755 $dt=0 $PIN_XY=5200,755,5250,755,5300,755,5250,755
Ma18 a17 a13 a18 n_bulk n l=100n w=410n ad=102.7f pd=730n as=53.3f ps=260n nrd=0.610946 nrs=0.317073 $X=4810 $Y=715 $dt=0 $PIN_XY=4860,715,4810,715,4760,715,4810,715
Ma19 a17 a13 a18 n_bulk n l=100n w=410n ad=172.5f pd=1.61u as=53.3f ps=260n nrd=1.02617 nrs=0.317073 $X=4450 $Y=715 $dt=0 $PIN_XY=4400,715,4450,715,4500,715,4450,715
Ma20 a13 a16 a17 n_bulk n l=100n w=360n ad=82.8f pd=820n as=46.8f ps=260n nrd=0.638889 nrs=0.361111 $X=350 $Y=470 $dt=0 $PIN_XY=300,470,350,470,400,470,350,470
Ma21 a17 a16 a13 n_bulk n l=100n w=360n ad=46.8f pd=260n as=46.8f ps=260n nrd=0.361111 nrs=0.361111 $X=710 $Y=470 $dt=0 $PIN_XY=660,470,710,470,760,470,710,470
Ma22 a17 a16 a13 n_bulk n l=100n w=360n ad=83.05f pd=585n as=46.8f ps=260n nrd=0.640818 nrs=0.361111 $X=1070 $Y=470 $dt=0 $PIN_XY=1120,470,1070,470,1020,470,1070,470
Ma23 a17 a15 a12 n_bulk n l=100n w=260n ad=83.05f pd=585n as=99.9f ps=1.1u nrd=1.22855 nrs=1.47781 $X=1605 $Y=520 $dt=0 $PIN_XY=1555,520,1605,520,1655,520,1605,520
Ma24 a14 a15 a13 p_bulk p l=100n w=780n ad=101.4f pd=260n as=158.4f ps=1.24u nrd=0.166667 nrs=0.260355 $X=2050 $Y=1900 $dt=1 $PIN_XY=2100,1900,2050,1900,2000,1900,2050,1900
Ma25 a13 a15 a14 p_bulk p l=100n w=780n ad=101.4f pd=260n as=101.4f ps=260n nrd=0.166667 nrs=0.166667 $X=2410 $Y=1900 $dt=1 $PIN_XY=2460,1900,2410,1900,2360,1900,2410,1900
Ma26 a14 a15 a13 p_bulk p l=100n w=780n ad=101.4f pd=260n as=101.4f ps=260n nrd=0.166667 nrs=0.166667 $X=2770 $Y=1900 $dt=1 $PIN_XY=2820,1900,2770,1900,2720,1900,2770,1900
Ma27 a18 a12 a14 p_bulk p l=100n w=780n ad=101.4f pd=260n as=101.4f ps=260n nrd=0.166667 nrs=0.166667 $X=3130 $Y=1900 $dt=1 $PIN_XY=3180,1900,3130,1900,3080,1900,3130,1900
Ma28 a18 a12 a14 p_bulk p l=100n w=780n ad=101.4f pd=260n as=101.4f ps=260n nrd=0.166667 nrs=0.166667 $X=3490 $Y=1900 $dt=1 $PIN_XY=3440,1900,3490,1900,3540,1900,3490,1900
Ma29 a18 a12 a14 p_bulk p l=100n w=780n ad=101.4f pd=260n as=101.4f ps=260n nrd=0.166667 nrs=0.166667 $X=3850 $Y=1900 $dt=1 $PIN_XY=3900,1900,3850,1900,3800,1900,3850,1900
Ma30 a20 a13 a18 p_bulk p l=100n w=780n ad=113.4f pd=335n as=101.4f ps=260n nrd=0.186391 nrs=0.166667 $X=4930 $Y=1900 $dt=1 $PIN_XY=4980,1900,4930,1900,4880,1900,4930,1900
Ma31 a20 a13 a18 p_bulk p l=100n w=780n ad=101.4f pd=260n as=101.4f ps=260n nrd=0.166667 nrs=0.166667 $X=4570 $Y=1900 $dt=1 $PIN_XY=4520,1900,4570,1900,4620,1900,4570,1900
Ma32 a18 a13 a20 p_bulk p l=100n w=780n ad=101.4f pd=260n as=101.4f ps=260n nrd=0.166667 nrs=0.166667 $X=4210 $Y=1900 $dt=1 $PIN_XY=4160,1900,4210,1900,4260,1900,4210,1900
Ma33 a19 a14 a20 p_bulk p l=100n w=930n ad=120.9f pd=260n as=213.9f ps=1.39u nrd=0.139785 nrs=0.247312 $X=6370 $Y=1825 $dt=1 $PIN_XY=6320,1825,6370,1825,6420,1825,6370,1825
Ma34 a20 a14 a19 p_bulk p l=100n w=930n ad=120.9f pd=260n as=120.9f ps=260n nrd=0.139785 nrs=0.139785 $X=6010 $Y=1825 $dt=1 $PIN_XY=5960,1825,6010,1825,6060,1825,6010,1825
Ma35 a19 a14 a20 p_bulk p l=100n w=930n ad=120.9f pd=260n as=120.9f ps=260n nrd=0.139785 nrs=0.139785 $X=5650 $Y=1825 $dt=1 $PIN_XY=5600,1825,5650,1825,5700,1825,5650,1825
Ma36 a20 a14 a19 p_bulk p l=100n w=930n ad=113.4f pd=335n as=120.9f ps=260n nrd=0.131113 nrs=0.139785 $X=5290 $Y=1825 $dt=1 $PIN_XY=5240,1825,5290,1825,5340,1825,5290,1825
Ma37 a13 a16 a20 p_bulk p l=100n w=930n ad=213.9f pd=1.39u as=120.9f ps=260n nrd=0.247312 nrs=0.139785 $X=350 $Y=1825 $dt=1 $PIN_XY=300,1825,350,1825,400,1825,350,1825
Ma38 a13 a16 a20 p_bulk p l=100n w=930n ad=142.5f pd=395n as=120.9f ps=260n nrd=0.164759 nrs=0.139785 $X=710 $Y=1825 $dt=1 $PIN_XY=760,1825,710,1825,660,1825,710,1825
Ma39 a12 a15 a20 p_bulk p l=100n w=730n ad=130.8f pd=1.19u as=155.4f ps=745n nrd=0.245449 nrs=0.291612 $X=1420 $Y=1610 $dt=1 $PIN_XY=1470,1610,1420,1610,1370,1610,1420,1610
Ma40 a20 a16 a13 p_bulk p l=100n w=1.2u ad=155.4f pd=745n as=142.5f ps=395n nrd=0.107917 nrs=0.0989583 $X=1070 $Y=1690 $dt=1 $PIN_XY=1120,1690,1070,1690,1020,1690,1070,1690
.ENDS CLKXOR2X8AD5wwswwwwwpjqkf6y

.SUBCKT OAI21BXLAD5wwrwwwwwui037ay a29 a27 a26 a25 a24 a23
Ma41 a26 a25 a22 n_bulk n l=100n w=200n ad=144.95f pd=1.81u as=46f ps=660n nrd=3.62375 nrs=1.15 $X=1630 $Y=820 $dt=0 $PIN_XY=1680,820,1630,820,1580,820,1630,820
Ma42 a28 a24 a26 n_bulk n l=100n w=200n ad=121.07f pd=1.2u as=26f ps=260n nrd=3.02667 nrs=0.65 $X=280 $Y=820 $dt=0 $PIN_XY=230,820,280,820,330,820,280,820
Ma43 a28 a23 a26 n_bulk n l=100n w=200n ad=121.07f pd=1.2u as=26f ps=260n nrd=3.02667 nrs=0.65 $X=640 $Y=820 $dt=0 $PIN_XY=690,820,640,820,590,820,640,820
Ma44 a27 a22 a28 n_bulk n l=100n w=200n ad=94.5f pd=1.46u as=121.07f ps=1.2u nrd=2.3625 nrs=3.02667 $X=990 $Y=820 $dt=0 $PIN_XY=1040,820,990,820,940,820,990,820
Ma45 a22 a25 a29 p_bulk p l=100n w=200n ad=52f pd=720n as=99.6f ps=730n nrd=1.3 nrs=2.49 $X=1510 $Y=1470 $dt=1 $PIN_XY=1560,1470,1510,1470,1460,1470,1510,1470
Ma46 a29 a24 a30 p_bulk p l=100n w=400n ad=92f pd=860n as=40f ps=200n nrd=0.575 nrs=0.25 $X=360 $Y=1570 $dt=1 $PIN_XY=310,1570,360,1570,410,1570,360,1570
Ma47 a30 a23 a27 p_bulk p l=100n w=400n ad=40f pd=200n as=52f ps=260n nrd=0.25 nrs=0.325 $X=660 $Y=1570 $dt=1 $PIN_XY=610,1570,660,1570,710,1570,660,1570
Ma48 a29 a22 a27 p_bulk p l=100n w=400n ad=99.6f pd=730n as=52f ps=260n nrd=0.6225 nrs=0.325 $X=1020 $Y=1570 $dt=1 $PIN_XY=1070,1570,1020,1570,970,1570,1020,1570
.ENDS OAI21BXLAD5wwrwwwwwui037ay

.SUBCKT MXI2DX1AD5ww2wwwwwwcjvb2y a40 a39 a38 a37 a36 a35
Ma49 a36 a35 a34 n_bulk n l=100n w=200n ad=61.25f pd=800n as=46f ps=660n nrd=1.53125 nrs=1.15 $X=670 $Y=785 $dt=0 $PIN_XY=620,785,670,785,720,785,670,785
Ma50 a36 a34 a32 n_bulk n l=100n w=200n ad=61.25f pd=800n as=46f ps=660n nrd=1.53125 nrs=1.15 $X=360 $Y=785 $dt=0 $PIN_XY=410,785,360,785,310,785,360,785
Ma51 a36 a33 a37 n_bulk n l=100n w=290n ad=163.5f pd=1.7u as=66.7f ps=750n nrd=1.94411 nrs=0.793103 $X=2450 $Y=720 $dt=0 $PIN_XY=2400,720,2450,720,2500,720,2450,720
Ma52 a38 a32 a33 n_bulk n l=100n w=300n ad=97.5f pd=1.25u as=39f ps=260n nrd=1.08333 nrs=0.433333 $X=1310 $Y=680 $dt=0 $PIN_XY=1260,680,1310,680,1360,680,1310,680
Ma53 a39 a34 a33 n_bulk n l=100n w=300n ad=75f pd=800n as=39f ps=260n nrd=0.833333 nrs=0.433333 $X=1670 $Y=680 $dt=0 $PIN_XY=1720,680,1670,680,1620,680,1670,680
Ma54 a40 a34 a32 p_bulk p l=100n w=200n ad=72.65f pd=875n as=46f ps=660n nrd=1.81625 nrs=1.15 $X=360 $Y=1495 $dt=1 $PIN_XY=410,1495,360,1495,310,1495,360,1495
Ma55 a40 a35 a34 p_bulk p l=100n w=260n ad=72.65f pd=875n as=67.6f ps=780n nrd=1.0747 nrs=1 $X=670 $Y=1525 $dt=1 $PIN_XY=620,1525,670,1525,720,1525,670,1525
Ma56 a40 a33 a37 p_bulk p l=100n w=610n ad=123.85f pd=1.07u as=140.3f ps=1.07u nrd=0.332841 nrs=0.377049 $X=2450 $Y=1875 $dt=1 $PIN_XY=2400,1875,2450,1875,2500,1875,2450,1875
Ma57 a39 a32 a33 p_bulk p l=100n w=420n ad=81.2f pd=880n as=54.6f ps=260n nrd=0.460317 nrs=0.309524 $X=1820 $Y=1655 $dt=1 $PIN_XY=1870,1655,1820,1655,1770,1655,1820,1655
Ma58 a33 a34 a38 p_bulk p l=100n w=420n ad=54.6f pd=260n as=96.6f ps=880n nrd=0.309524 nrs=0.547619 $X=1460 $Y=1655 $dt=1 $PIN_XY=1510,1655,1460,1655,1410,1655,1460,1655
.ENDS MXI2DX1AD5ww2wwwwwwcjvb2y

.SUBCKT OAI22X2AD5wwrwwwwwtiwhqmy a49 a48 a47 a45 a44 a43 a42
Ma59 a46 a45 a47 n_bulk n l=100n w=690n ad=165.6f pd=1.17u as=141.45f ps=410n nrd=0.347826 nrs=0.297101 $X=360 $Y=575 $dt=0 $PIN_XY=310,575,360,575,410,575,360,575
Ma60 a47 a44 a46 n_bulk n l=100n w=690n ad=141.45f pd=410n as=93.15f ps=270n nrd=0.297101 nrs=0.195652 $X=870 $Y=575 $dt=0 $PIN_XY=820,575,870,575,920,575,870,575
Ma61 a46 a43 a48 n_bulk n l=100n w=690n ad=93.15f pd=270n as=89.7f ps=260n nrd=0.195652 nrs=0.188406 $X=1240 $Y=575 $dt=0 $PIN_XY=1190,575,1240,575,1290,575,1240,575
Ma62 a46 a42 a48 n_bulk n l=100n w=690n ad=158.7f pd=1.15u as=89.7f ps=260n nrd=0.333333 nrs=0.188406 $X=1600 $Y=575 $dt=0 $PIN_XY=1650,575,1600,575,1550,575,1600,575
Ma63 a49 a45 a50 p_bulk p l=100n w=930n ad=283.65f pd=1.54u as=93f ps=200n nrd=0.327957 nrs=0.107527 $X=570 $Y=1825 $dt=1 $PIN_XY=520,1825,570,1825,620,1825,570,1825
Ma64 a50 a44 a48 p_bulk p l=100n w=930n ad=93f pd=200n as=120.9f ps=260n nrd=0.107527 nrs=0.139785 $X=870 $Y=1825 $dt=1 $PIN_XY=820,1825,870,1825,920,1825,870,1825
Ma65 a48 a43 a51 p_bulk p l=100n w=930n ad=120.9f pd=260n as=93f ps=200n nrd=0.139785 nrs=0.107527 $X=1230 $Y=1825 $dt=1 $PIN_XY=1180,1825,1230,1825,1280,1825,1230,1825
Ma66 a49 a42 a51 p_bulk p l=100n w=930n ad=213.9f pd=1.39u as=93f ps=200n nrd=0.247312 nrs=0.107527 $X=1530 $Y=1825 $dt=1 $PIN_XY=1580,1825,1530,1825,1480,1825,1530,1825
.ENDS OAI22X2AD5wwrwwwwwtiwhqmy

.SUBCKT TLATNTSCAX3AD5wwawwwww2cdstyy a68 a63 a62 a60 a59 a57
Ma67 a62 a54 a53 n_bulk n l=100n w=200n ad=121.3f pd=863.33n as=54f ps=740n nrd=3.0325 nrs=1.35 $X=670 $Y=820 $dt=0 $PIN_XY=620,820,670,820,720,820,670,820
Ma68 a56 a55 a62 n_bulk n l=100n w=200n ad=46f pd=660n as=137.12f ps=976.67n nrd=1.15 nrs=3.42792 $X=4120 $Y=820 $dt=0 $PIN_XY=4070,820,4120,820,4170,820,4120,820
Ma69 a62 a55 a63 n_bulk n l=100n w=370n ad=155.4f pd=1.21u as=48.1f ps=260n nrd=1.13514 nrs=0.351351 $X=4870 $Y=735 $dt=0 $PIN_XY=4920,735,4870,735,4820,735,4870,735
Ma70 a62 a54 a63 n_bulk n l=100n w=370n ad=137.12f pd=976.67n as=48.1f ps=260n nrd=1.00158 nrs=0.351351 $X=4510 $Y=735 $dt=0 $PIN_XY=4460,735,4510,735,4560,735,4510,735
Ma71 a62 a61 a58 n_bulk n l=100n w=300n ad=115f pd=793.33n as=74.4f ps=840n nrd=1.27778 nrs=0.826667 $X=2280 $Y=830 $dt=0 $PIN_XY=2330,830,2280,830,2230,830,2280,830
Ma72 a62 a56 a64 n_bulk n l=100n w=200n ad=137.12f pd=976.67n as=15f ps=150n nrd=3.42792 nrs=0.375 $X=3520 $Y=480 $dt=0 $PIN_XY=3570,480,3520,480,3470,480,3520,480
Ma73 a55 a53 a64 n_bulk n l=100n w=200n ad=68.2f pd=550n as=15f ps=150n nrd=1.705 nrs=0.375 $X=3270 $Y=480 $dt=0 $PIN_XY=3220,480,3270,480,3320,480,3270,480
Ma74 a62 a57 a54 n_bulk n l=100n w=570n ad=121.3f pd=863.33n as=131.1f ps=1.03u nrd=0.373346 nrs=0.403509 $X=350 $Y=635 $dt=0 $PIN_XY=400,635,350,635,300,635,350,635
Ma75 a61 a60 a62 n_bulk n l=100n w=200n ad=71f pd=710n as=115f ps=793.33n nrd=1.775 nrs=2.875 $X=1710 $Y=440 $dt=0 $PIN_XY=1660,440,1710,440,1760,440,1710,440
Ma76 a62 a59 a61 n_bulk n l=100n w=200n ad=121.3f pd=863.33n as=71f ps=710n nrd=3.0325 nrs=1.775 $X=1310 $Y=440 $dt=0 $PIN_XY=1260,440,1310,440,1360,440,1310,440
Ma77 a55 a54 a65 n_bulk n l=100n w=640n ad=68.2f pd=550n as=48f ps=150n nrd=0.166504 nrs=0.117188 $X=2840 $Y=550 $dt=0 $PIN_XY=2890,550,2840,550,2790,550,2840,550
Ma78 a65 a58 a62 n_bulk n l=100n w=640n ad=48f pd=150n as=115f ps=793.33n nrd=0.117188 nrs=0.280762 $X=2590 $Y=550 $dt=0 $PIN_XY=2640,550,2590,550,2540,550,2590,550
Ma79 a68 a61 a58 p_bulk p l=100n w=420n ad=106f pd=705n as=96.6f ps=880n nrd=0.600907 nrs=0.547619 $X=2280 $Y=1670 $dt=1 $PIN_XY=2330,1670,2280,1670,2230,1670,2280,1670
Ma80 a55 a54 a69 p_bulk p l=100n w=200n ad=119.7f pd=735n as=15.5f ps=155n nrd=2.9925 nrs=0.3875 $X=3360 $Y=2080 $dt=1 $PIN_XY=3310,2080,3360,2080,3410,2080,3360,2080
Ma81 a68 a56 a69 p_bulk p l=100n w=200n ad=111.83f pd=696.67n as=15.5f ps=155n nrd=2.79583 nrs=0.3875 $X=3615 $Y=2080 $dt=1 $PIN_XY=3665,2080,3615,2080,3565,2080,3615,2080
Ma82 a70 a58 a68 p_bulk p l=100n w=830n ad=62.25f pd=150n as=106f ps=705n nrd=0.0903614 nrs=0.153868 $X=2590 $Y=1875 $dt=1 $PIN_XY=2640,1875,2590,1875,2540,1875,2590,1875
Ma83 a55 a53 a70 p_bulk p l=100n w=830n ad=119.7f pd=735n as=62.25f ps=150n nrd=0.173755 nrs=0.0903615 $X=2840 $Y=1875 $dt=1 $PIN_XY=2890,1875,2840,1875,2790,1875,2840,1875
Ma84 a68 a55 a56 p_bulk p l=100n w=280n ad=111.83f pd=696.67n as=63.7f ps=780n nrd=1.42645 nrs=0.8125 $X=4050 $Y=1600 $dt=1 $PIN_XY=4100,1600,4050,1600,4000,1600,4050,1600
Ma85 a66 a54 a68 p_bulk p l=100n w=700n ad=52.5f pd=150n as=111.83f ps=696.67n nrd=0.107143 nrs=0.228231 $X=4380 $Y=1940 $dt=1 $PIN_XY=4430,1940,4380,1940,4330,1940,4380,1940
Ma86 a67 a54 a68 p_bulk p l=100n w=700n ad=52.5f pd=150n as=161f ps=1.16u nrd=0.107143 nrs=0.328571 $X=5240 $Y=1940 $dt=1 $PIN_XY=5190,1940,5240,1940,5290,1940,5240,1940
Ma87 a67 a55 a63 p_bulk p l=100n w=700n ad=52.5f pd=150n as=91f ps=260n nrd=0.107143 nrs=0.185714 $X=4990 $Y=1940 $dt=1 $PIN_XY=5040,1940,4990,1940,4940,1940,4990,1940
Ma88 a66 a55 a63 p_bulk p l=100n w=700n ad=52.5f pd=150n as=91f ps=260n nrd=0.107143 nrs=0.185714 $X=4630 $Y=1940 $dt=1 $PIN_XY=4580,1940,4630,1940,4680,1940,4630,1940
Ma89 a68 a54 a53 p_bulk p l=100n w=280n ad=150.42f pd=1.04u as=64.4f ps=740n nrd=1.91858 nrs=0.821429 $X=1000 $Y=1585 $dt=1 $PIN_XY=1050,1585,1000,1585,950,1585,1000,1585
Ma90 a68 a59 a71 p_bulk p l=100n w=350n ad=150.42f pd=1.04u as=26.25f ps=150n nrd=1.22789 nrs=0.214286 $X=1310 $Y=1805 $dt=1 $PIN_XY=1260,1805,1310,1805,1360,1805,1310,1805
Ma91 a61 a60 a71 p_bulk p l=100n w=350n ad=80.5f pd=810n as=26.25f ps=150n nrd=0.657143 nrs=0.214286 $X=1560 $Y=1805 $dt=1 $PIN_XY=1610,1805,1560,1805,1510,1805,1560,1805
Ma92 a68 a57 a54 p_bulk p l=100n w=800n ad=150.42f pd=1.04u as=184f ps=1.26u nrd=0.235026 nrs=0.2875 $X=350 $Y=1890 $dt=1 $PIN_XY=400,1890,350,1890,300,1890,350,1890
.ENDS TLATNTSCAX3AD5wwawwwww2cdstyy

.SUBCKT DFFHX2AD5wwewwwww0k8t4cy a89 a86 a85 a83 a82 a80
Ma93 a78 a82 a83 n_bulk n l=100n w=210n ad=48.3f pd=670n as=77.92f ps=890n nrd=1.09524 nrs=1.76701 $X=1780 $Y=755 $dt=0 $PIN_XY=1830,755,1780,755,1730,755,1780,755
Ma94 a83 a80 a73 n_bulk n l=100n w=210n ad=77.92f pd=890n as=48.3f ps=670n nrd=1.76701 nrs=1.09524 $X=1420 $Y=755 $dt=0 $PIN_XY=1470,755,1420,755,1370,755,1420,755
Ma95 a79 a80 a83 n_bulk n l=100n w=240n ad=55.2f pd=700n as=37.6f ps=300n nrd=0.958333 nrs=0.652778 $X=350 $Y=790 $dt=0 $PIN_XY=300,790,350,790,400,790,350,790
Ma96 a83 a79 a77 n_bulk n l=100n w=320n ad=37.6f pd=300n as=73.6f ps=780n nrd=0.367188 nrs=0.71875 $X=710 $Y=750 $dt=0 $PIN_XY=660,750,710,750,760,750,710,750
Ma97 a83 a75 a74 n_bulk n l=100n w=200n ad=30f pd=300n as=46f ps=660n nrd=0.75 nrs=1.15 $X=6350 $Y=730 $dt=0 $PIN_XY=6300,730,6350,730,6400,730,6350,730
Ma98 a83 a74 a84 n_bulk n l=100n w=200n ad=30f pd=300n as=15f ps=150n nrd=0.75 nrs=0.375 $X=5950 $Y=730 $dt=0 $PIN_XY=6000,730,5950,730,5900,730,5950,730
Ma99 a75 a73 a84 n_bulk n l=100n w=200n ad=70f pd=580n as=15f ps=150n nrd=1.75 nrs=0.375 $X=5700 $Y=730 $dt=0 $PIN_XY=5650,730,5700,730,5750,730,5700,730
Ma100 a75 a77 a81 n_bulk n l=100n w=600n ad=70f pd=580n as=116f ps=1.12u nrd=0.194444 nrs=0.322222 $X=5220 $Y=570 $dt=0 $PIN_XY=5270,570,5220,570,5170,570,5220,570
Ma101 a83 a74 a85 n_bulk n l=100n w=200n ad=84.4f pd=685n as=46f ps=660n nrd=2.11 nrs=1.15 $X=6810 $Y=390 $dt=0 $PIN_XY=6860,390,6810,390,6760,390,6810,390
Ma102 a83 a75 a86 n_bulk n l=100n w=670n ad=84.4f pd=685n as=154.1f ps=1.13u nrd=0.188015 nrs=0.343284 $X=7210 $Y=585 $dt=0 $PIN_XY=7160,585,7210,585,7260,585,7210,585
Ma103 a87 a77 a76 n_bulk n l=100n w=200n ad=15f pd=150n as=61.9f ps=520n nrd=0.375 nrs=1.5475 $X=2670 $Y=740 $dt=0 $PIN_XY=2620,740,2670,740,2720,740,2670,740
Ma104 a83 a81 a87 n_bulk n l=100n w=200n ad=123.9f pd=1.82u as=15f ps=150n nrd=3.0975 nrs=0.375 $X=2420 $Y=740 $dt=0 $PIN_XY=2370,740,2420,740,2470,740,2420,740
Ma105 a83 a76 a81 n_bulk n l=100n w=340n ad=147.7f pd=1.67u as=47.6f ps=280n nrd=1.27768 nrs=0.411765 $X=4430 $Y=670 $dt=0 $PIN_XY=4480,670,4430,670,4380,670,4430,670
Ma106 a83 a76 a81 n_bulk n l=100n w=340n ad=192.75f pd=860n as=47.6f ps=280n nrd=1.66739 nrs=0.411765 $X=4050 $Y=670 $dt=0 $PIN_XY=4000,670,4050,670,4100,670,4050,670
Ma107 a83 a73 a88 n_bulk n l=100n w=530n ad=192.75f pd=860n as=39.75f ps=150n nrd=0.686187 nrs=0.141509 $X=3375 $Y=575 $dt=0 $PIN_XY=3425,575,3375,575,3325,575,3375,575
Ma108 a76 a78 a88 n_bulk n l=100n w=530n ad=61.9f pd=520n as=39.75f ps=150n nrd=0.220363 nrs=0.141509 $X=3125 $Y=575 $dt=0 $PIN_XY=3075,575,3125,575,3175,575,3125,575
Ma109 a89 a80 a79 p_bulk p l=100n w=240n ad=88.6f pd=615n as=55.2f ps=700n nrd=1.53819 nrs=0.958333 $X=350 $Y=1480 $dt=1 $PIN_XY=400,1480,350,1480,300,1480,350,1480
Ma110 a89 a79 a77 p_bulk p l=100n w=890n ad=88.6f pd=615n as=169.7f ps=1.35u nrd=0.111855 nrs=0.214241 $X=660 $Y=1805 $dt=1 $PIN_XY=610,1805,660,1805,710,1805,660,1805
Ma111 a89 a82 a78 p_bulk p l=100n w=280n ad=121.93f pd=1.07u as=64.4f ps=740n nrd=1.55527 nrs=0.821429 $X=1850 $Y=1500 $dt=1 $PIN_XY=1800,1500,1850,1500,1900,1500,1850,1500
Ma112 a89 a80 a92 p_bulk p l=100n w=560n ad=121.93f pd=1.07u as=42f ps=150n nrd=0.388818 nrs=0.133929 $X=1540 $Y=1640 $dt=1 $PIN_XY=1590,1640,1540,1640,1490,1640,1540,1640
Ma113 a73 a77 a92 p_bulk p l=100n w=560n ad=115.5f pd=1.02u as=42f ps=150n nrd=0.368304 nrs=0.133929 $X=1290 $Y=1640 $dt=1 $PIN_XY=1240,1640,1290,1640,1340,1640,1290,1640
Ma114 a89 a81 a93 p_bulk p l=100n w=280n ad=121.93f pd=1.07u as=21f ps=150n nrd=1.55527 nrs=0.267857 $X=2480 $Y=1550 $dt=1 $PIN_XY=2430,1550,2480,1550,2530,1550,2480,1550
Ma115 a76 a73 a93 p_bulk p l=100n w=280n ad=80.95f pd=585n as=21f ps=150n nrd=1.03253 nrs=0.267857 $X=2730 $Y=1550 $dt=1 $PIN_XY=2780,1550,2730,1550,2680,1550,2730,1550
Ma116 a89 a74 a90 p_bulk p l=100n w=200n ad=133.1f pd=1.33u as=15f ps=150n nrd=3.3275 nrs=0.375 $X=6040 $Y=1590 $dt=1 $PIN_XY=6090,1590,6040,1590,5990,1590,6040,1590
Ma117 a75 a77 a90 p_bulk p l=100n w=200n ad=132.33f pd=1.41u as=15f ps=150n nrd=3.30833 nrs=0.375 $X=5790 $Y=1590 $dt=1 $PIN_XY=5740,1590,5790,1590,5840,1590,5790,1590
Ma118 a89 a75 a74 p_bulk p l=100n w=280n ad=133.1f pd=1.33u as=75.6f ps=820n nrd=1.6977 nrs=0.964286 $X=6350 $Y=1460 $dt=1 $PIN_XY=6300,1460,6350,1460,6400,1460,6350,1460
Ma119 a75 a73 a81 p_bulk p l=100n w=600n ad=132.33f pd=1.41u as=78f ps=260n nrd=0.367593 nrs=0.216667 $X=5460 $Y=1790 $dt=1 $PIN_XY=5510,1790,5460,1790,5410,1790,5460,1790
Ma120 a75 a73 a81 p_bulk p l=100n w=600n ad=132.33f pd=1.41u as=78f ps=260n nrd=0.367593 nrs=0.216667 $X=5100 $Y=1790 $dt=1 $PIN_XY=5050,1790,5100,1790,5150,1790,5100,1790
Ma121 a89 a76 a81 p_bulk p l=100n w=600n ad=222.63f pd=2.09u as=84f ps=280n nrd=0.618426 nrs=0.233333 $X=4160 $Y=1620 $dt=1 $PIN_XY=4110,1620,4160,1620,4210,1620,4160,1620
Ma122 a89 a76 a81 p_bulk p l=100n w=600n ad=222.63f pd=2.09u as=84f ps=280n nrd=0.618426 nrs=0.233333 $X=4540 $Y=1620 $dt=1 $PIN_XY=4590,1620,4540,1620,4490,1620,4540,1620
Ma123 a89 a74 a85 p_bulk p l=100n w=400n ad=124.15f pd=730n as=80.1f ps=860n nrd=0.775937 nrs=0.500625 $X=6810 $Y=1940 $dt=1 $PIN_XY=6860,1940,6810,1940,6760,1940,6810,1940
Ma124 a89 a75 a86 p_bulk p l=100n w=910n ad=124.15f pd=730n as=209.3f ps=1.37u nrd=0.149922 nrs=0.252747 $X=7210 $Y=1815 $dt=1 $PIN_XY=7160,1815,7210,1815,7260,1815,7210,1815
Ma125 a76 a78 a91 p_bulk p l=100n w=740n ad=80.95f pd=585n as=55.5f ps=150n nrd=0.147827 nrs=0.101351 $X=3125 $Y=1840 $dt=1 $PIN_XY=3075,1840,3125,1840,3175,1840,3125,1840
Ma126 a89 a77 a91 p_bulk p l=100n w=740n ad=222.63f pd=2.09u as=55.5f ps=150n nrd=0.406562 nrs=0.101351 $X=3375 $Y=1840 $dt=1 $PIN_XY=3425,1840,3375,1840,3325,1840,3375,1840
.ENDS DFFHX2AD5wwewwwww0k8t4cy

.SUBCKT MDFFHQX8AD5wwdywwwwi52jpty a117 a109 a108 a107 a106 a104 a102
Ma127 a109 a97 a108 n_bulk n l=100n w=690n ad=89.7f pd=260n as=158.7f ps=1.15u nrd=0.188406 nrs=0.333333 $X=16450 $Y=575 $dt=0 $PIN_XY=16400,575,16450,575,16500,575,16450,575
Ma128 a109 a97 a108 n_bulk n l=100n w=690n ad=89.7f pd=260n as=89.7f ps=260n nrd=0.188406 nrs=0.188406 $X=16090 $Y=575 $dt=0 $PIN_XY=16140,575,16090,575,16040,575,16090,575
Ma129 a108 a97 a109 n_bulk n l=100n w=690n ad=89.7f pd=260n as=89.7f ps=260n nrd=0.188406 nrs=0.188406 $X=15730 $Y=575 $dt=0 $PIN_XY=15780,575,15730,575,15680,575,15730,575
Ma130 a108 a97 a109 n_bulk n l=100n w=690n ad=99.4f pd=640n as=89.7f ps=260n nrd=0.20878 nrs=0.188406 $X=15370 $Y=575 $dt=0 $PIN_XY=15320,575,15370,575,15420,575,15370,575
Ma131 a101 a100 a111 n_bulk n l=100n w=320n ad=44.8f pd=280n as=24f ps=150n nrd=0.4375 nrs=0.234375 $X=8965 $Y=630 $dt=0 $PIN_XY=9015,630,8965,630,8915,630,8965,630
Ma132 a108 a96 a110 n_bulk n l=100n w=320n ad=176f pd=1.72u as=24f ps=150n nrd=1.71875 nrs=0.234375 $X=9595 $Y=630 $dt=0 $PIN_XY=9645,630,9595,630,9545,630,9595,630
Ma133 a110 a100 a101 n_bulk n l=100n w=320n ad=24f pd=150n as=44.8f ps=280n nrd=0.234375 nrs=0.4375 $X=9345 $Y=630 $dt=0 $PIN_XY=9395,630,9345,630,9295,630,9345,630
Ma134 a99 a101 a108 n_bulk n l=100n w=500n ad=65f pd=260n as=68.53f ps=680n nrd=0.26 nrs=0.2741 $X=10950 $Y=555 $dt=0 $PIN_XY=11000,555,10950,555,10900,555,10950,555
Ma135 a108 a101 a99 n_bulk n l=100n w=500n ad=98.5f pd=535n as=65f ps=260n nrd=0.394 nrs=0.26 $X=11310 $Y=555 $dt=0 $PIN_XY=11360,555,11310,555,11260,555,11310,555
Ma136 a108 a101 a99 n_bulk n l=100n w=500n ad=172f pd=1.47u as=65f ps=260n nrd=0.688 nrs=0.26 $X=12070 $Y=555 $dt=0 $PIN_XY=12120,555,12070,555,12020,555,12070,555
Ma137 a99 a101 a108 n_bulk n l=100n w=500n ad=65f pd=260n as=98.5f ps=535n nrd=0.26 nrs=0.394 $X=11710 $Y=555 $dt=0 $PIN_XY=11760,555,11710,555,11660,555,11710,555
Ma138 a97 a95 a99 n_bulk n l=100n w=480n ad=62.4f pd=260n as=62.4f ps=260n nrd=0.270833 nrs=0.270833 $X=13565 $Y=565 $dt=0 $PIN_XY=13515,565,13565,565,13615,565,13565,565
Ma139 a99 a95 a97 n_bulk n l=100n w=480n ad=62.4f pd=260n as=66.12f ps=530n nrd=0.270833 nrs=0.287001 $X=13925 $Y=565 $dt=0 $PIN_XY=13875,565,13925,565,13975,565,13925,565
Ma140 a97 a95 a99 n_bulk n l=100n w=480n ad=62.4f pd=260n as=68.4f ps=285n nrd=0.270833 nrs=0.296875 $X=13205 $Y=565 $dt=0 $PIN_XY=13255,565,13205,565,13155,565,13205,565
Ma141 a99 a95 a97 n_bulk n l=100n w=480n ad=68.4f pd=285n as=110.4f ps=940n nrd=0.296875 nrs=0.479167 $X=12820 $Y=565 $dt=0 $PIN_XY=12870,565,12820,565,12770,565,12820,565
Ma142 a108 a96 a111 n_bulk n l=100n w=320n ad=73f pd=550n as=24f ps=150n nrd=0.712891 nrs=0.234375 $X=8715 $Y=630 $dt=0 $PIN_XY=8665,630,8715,630,8765,630,8715,630
Ma143 a98 a97 a108 n_bulk n l=100n w=200n ad=48f pd=680n as=99.4f ps=640n nrd=1.2 nrs=2.485 $X=15060 $Y=820 $dt=0 $PIN_XY=15010,820,15060,820,15110,820,15060,820
Ma144 a112 a95 a101 n_bulk n l=100n w=210n ad=15.75f pd=150n as=48.3f ps=670n nrd=0.357143 nrs=1.09524 $X=10390 $Y=700 $dt=0 $PIN_XY=10440,700,10390,700,10340,700,10390,700
Ma145 a108 a99 a112 n_bulk n l=100n w=210n ad=68.53f pd=680n as=15.75f ps=150n nrd=1.55386 nrs=0.357143 $X=10640 $Y=700 $dt=0 $PIN_XY=10690,700,10640,700,10590,700,10640,700
Ma146 a108 a98 a113 n_bulk n l=100n w=200n ad=99.4f pd=640n as=18.5f ps=185n nrd=2.485 nrs=0.4625 $X=14665 $Y=390 $dt=0 $PIN_XY=14715,390,14665,390,14615,390,14665,390
Ma147 a97 a96 a113 n_bulk n l=100n w=200n ad=66.12f pd=530n as=18.5f ps=185n nrd=1.65312 nrs=0.4625 $X=14380 $Y=390 $dt=0 $PIN_XY=14330,390,14380,390,14430,390,14380,390
Ma148 a100 a103 a114 n_bulk n l=100n w=570n ad=109.05f pd=1.03u as=106.5f ps=510n nrd=0.335642 nrs=0.327793 $X=2965 $Y=535 $dt=0 $PIN_XY=3015,535,2965,535,2915,535,2965,535
Ma149 a100 a103 a114 n_bulk n l=100n w=570n ad=131.1f pd=1.03u as=106.5f ps=510n nrd=0.403509 nrs=0.327793 $X=2565 $Y=535 $dt=0 $PIN_XY=2515,535,2565,535,2615,535,2565,535
Ma150 a100 a102 a115 n_bulk n l=100n w=570n ad=106.5f pd=510n as=131.1f ps=1.03u nrd=0.327793 nrs=0.403509 $X=1465 $Y=535 $dt=0 $PIN_XY=1515,535,1465,535,1415,535,1465,535
Ma151 a115 a102 a100 n_bulk n l=100n w=570n ad=131.1f pd=1.03u as=106.5f ps=510n nrd=0.403509 nrs=0.327793 $X=1865 $Y=535 $dt=0 $PIN_XY=1915,535,1865,535,1815,535,1865,535
Ma152 a114 a106 a108 n_bulk n l=100n w=570n ad=74.1f pd=260n as=72.55f ps=425n nrd=0.22807 nrs=0.223299 $X=4065 $Y=550 $dt=0 $PIN_XY=4115,550,4065,550,4015,550,4065,550
Ma153 a108 a106 a114 n_bulk n l=100n w=570n ad=129.27f pd=530n as=74.1f ps=260n nrd=0.397892 nrs=0.22807 $X=4425 $Y=550 $dt=0 $PIN_XY=4475,550,4425,550,4375,550,4425,550
Ma154 a95 a105 a108 n_bulk n l=100n w=440n ad=57.2f pd=260n as=129.27f ps=530n nrd=0.295455 nrs=0.667743 $X=4990 $Y=615 $dt=0 $PIN_XY=5040,615,4990,615,4940,615,4990,615
Ma155 a108 a105 a95 n_bulk n l=100n w=440n ad=175f pd=1.59u as=57.2f ps=260n nrd=0.903926 nrs=0.295455 $X=5350 $Y=615 $dt=0 $PIN_XY=5400,615,5350,615,5300,615,5350,615
Ma156 a108 a102 a103 n_bulk n l=100n w=280n ad=72.55f pd=425n as=68.6f ps=770n nrd=0.925383 nrs=0.875 $X=3685 $Y=695 $dt=0 $PIN_XY=3735,695,3685,695,3635,695,3685,695
Ma157 a115 a104 a108 n_bulk n l=100n w=570n ad=74.1f pd=260n as=131.1f ps=1.03u nrd=0.22807 nrs=0.403509 $X=350 $Y=550 $dt=0 $PIN_XY=400,550,350,550,300,550,350,550
Ma158 a108 a104 a115 n_bulk n l=100n w=570n ad=181.5f pd=1.46u as=74.1f ps=260n nrd=0.558633 nrs=0.22807 $X=710 $Y=550 $dt=0 $PIN_XY=760,550,710,550,660,550,710,550
Ma159 a108 a107 a105 n_bulk n l=100n w=330n ad=86.5f pd=700n as=42.9f ps=260n nrd=0.794307 nrs=0.393939 $X=6450 $Y=615 $dt=0 $PIN_XY=6500,615,6450,615,6400,615,6450,615
Ma160 a108 a107 a105 n_bulk n l=100n w=330n ad=158.5f pd=1.59u as=42.9f ps=260n nrd=1.45546 nrs=0.393939 $X=6090 $Y=615 $dt=0 $PIN_XY=6040,615,6090,615,6140,615,6090,615
Ma161 a108 a107 a96 n_bulk n l=100n w=290n ad=156.5f pd=1.63u as=39.88f ps=275n nrd=1.86088 nrs=0.474138 $X=7225 $Y=635 $dt=0 $PIN_XY=7275,635,7225,635,7175,635,7225,635
Ma162 a108 a107 a96 n_bulk n l=100n w=290n ad=86.5f pd=700n as=39.88f ps=275n nrd=1.02854 nrs=0.474138 $X=6850 $Y=635 $dt=0 $PIN_XY=6800,635,6850,635,6900,635,6850,635
Ma163 a101 a100 a116 n_bulk n l=100n w=320n ad=73.6f pd=780n as=24f ps=150n nrd=0.71875 nrs=0.234375 $X=8065 $Y=630 $dt=0 $PIN_XY=8015,630,8065,630,8115,630,8065,630
Ma164 a108 a96 a116 n_bulk n l=100n w=320n ad=73f pd=550n as=24f ps=150n nrd=0.712891 nrs=0.234375 $X=8315 $Y=630 $dt=0 $PIN_XY=8365,630,8315,630,8265,630,8315,630
Ma165 a117 a95 a118 p_bulk p l=100n w=700n ad=244.32f pd=2.07u as=52.5f ps=150n nrd=0.498622 nrs=0.107143 $X=9595 $Y=1620 $dt=1 $PIN_XY=9645,1620,9595,1620,9545,1620,9595,1620
Ma166 a119 a95 a117 p_bulk p l=100n w=700n ad=52.5f pd=150n as=138f ps=630n nrd=0.107143 nrs=0.281633 $X=8715 $Y=1620 $dt=1 $PIN_XY=8765,1620,8715,1620,8665,1620,8715,1620
Ma167 a118 a100 a101 p_bulk p l=100n w=700n ad=52.5f pd=150n as=98f ps=280n nrd=0.107143 nrs=0.2 $X=9345 $Y=1620 $dt=1 $PIN_XY=9395,1620,9345,1620,9295,1620,9345,1620
Ma168 a101 a100 a119 p_bulk p l=100n w=700n ad=98f pd=280n as=52.5f ps=150n nrd=0.2 nrs=0.107143 $X=8965 $Y=1620 $dt=1 $PIN_XY=9015,1620,8965,1620,8915,1620,8965,1620
Ma169 a117 a107 a120 p_bulk p l=100n w=770n ad=120.9f pd=755n as=57.75f ps=150n nrd=0.203913 nrs=0.0974026 $X=6505 $Y=1665 $dt=1 $PIN_XY=6455,1665,6505,1665,6555,1665,6505,1665
Ma170 a117 a107 a121 p_bulk p l=100n w=770n ad=242.5f pd=1.87u as=57.75f ps=150n nrd=0.409007 nrs=0.0974026 $X=7365 $Y=1665 $dt=1 $PIN_XY=7415,1665,7365,1665,7315,1665,7365,1665
Ma171 a117 a107 a105 p_bulk p l=100n w=660n ad=120.9f pd=755n as=151.8f ps=1.12u nrd=0.277548 nrs=0.348485 $X=6175 $Y=1610 $dt=1 $PIN_XY=6225,1610,6175,1610,6125,1610,6175,1610
Ma172 a120 a95 a96 p_bulk p l=100n w=770n ad=57.75f pd=150n as=100.1f ps=260n nrd=0.0974026 nrs=0.168831 $X=6755 $Y=1665 $dt=1 $PIN_XY=6705,1665,6755,1665,6805,1665,6755,1665